&HEAD CHID='RCE_1m_wc', TITLE='Simulation of RCE - Geometry 1m height with ceiling (wc) - gridsize 12.5mm - Parameter from Cone_C5_PMMACN_h_rep100 - Optically Thin' /

&TIME T_END=3600 /
&DUMP NFRAMES=3600 /

&MISC SIMULATION_MODE='LES', TMPA=20 /
&RADI NUMBER_RADIATION_ANGLES=100, OPTICALLY_THIN=T /

***** Meshes ******************

&MESH XB = 0.150, 0.350, 0.150, 0.350, 0.00, 0.50, IJK = 16, 16, 40, MULT_ID='mesh_2a' /
&MESH XB = 0.350, 0.550, 0.150, 0.350, 0.00, 0.50, IJK = 16, 16, 40, MULT_ID='mesh_2a' /
&MESH XB = 0.550, 0.650, 0.150, 0.350, 0.00, 0.50, IJK = 16, 32, 80, MULT_ID='mesh_2b' / +

&MESH XB = 0.150, 0.350, 0.350, 0.550, 0.00, 0.50, IJK = 16, 16, 40, MULT_ID='mesh_2a' /
&MESH XB = 0.350, 0.550, 0.350, 0.550, 0.00, 0.50, IJK = 16, 16, 40, MULT_ID='mesh_2a' /
&MESH XB = 0.550, 0.650, 0.350, 0.550, 0.00, 0.50, IJK = 16, 32, 80, MULT_ID='mesh_2b' / ++

&MESH XB = 0.150, 0.350, 0.550, 0.650, 0.00, 0.50, IJK = 32, 16, 80, MULT_ID='mesh_2c' / +
&MESH XB = 0.350, 0.550, 0.550, 0.650, 0.00, 0.50, IJK = 32, 16, 80, MULT_ID='mesh_2c' / ++
&MESH XB = 0.550, 0.650, 0.550, 0.650, 0.00, 0.50, IJK = 16, 16, 80, MULT_ID='mesh_2d' / +++

&MULT ID = 'mesh_2a', DX=0.0, DY=0.0, DZ=0.5, I_UPPER=0, J_UPPER=0, K_UPPER=2 /
&MULT ID = 'mesh_2b', DX=0.1, DY=0.0, DZ=0.5, I_UPPER=1, J_UPPER=0, K_UPPER=2 /
&MULT ID = 'mesh_2c', DX=0.0, DY=0.1, DZ=0.5, I_UPPER=0, J_UPPER=1, K_UPPER=2 /
&MULT ID = 'mesh_2d', DX=0.1, DY=0.1, DZ=0.5, I_UPPER=1, J_UPPER=1, K_UPPER=2 /

***** Open Vents ******************

&VENT MB='XMIN', SURF_ID='OPEN' /
&VENT MB='XMAX', SURF_ID='OPEN' /
&VENT MB='YMIN', SURF_ID='OPEN' /
&VENT MB='YMAX', SURF_ID='OPEN' /
&VENT MB='ZMAX', SURF_ID='OPEN' /

&VENT DB='ZMIN', SURF_ID='PROMAT LS' /

***** REAC Parameters *************

&REAC ID='PROPANE', FUEL='PROPANE', SOOT_YIELD=0.024, RADIATIVE_FRACTION=0.29 /

&SPEC ID='MMA', FORMULA='C5O2H8', RADCAL_ID='MMA', RAMP_CP='MMA CP'/
&RAMP ID='MMA CP',T=113.5,F=1.476/ https://www.chemeo.com/cid/57-301-4/Methyl-methacrylate
&RAMP ID='MMA CP',T=299.6,F=1.903/
&REAC FUEL='MMA', SOOT_YIELD=0.022, CO_YIELD=0.01, RADIATIVE_FRACTION=0.31,HEAT_OF_COMBUSTION=24190/ Tewarson, 4th SFPE Handbook, Table 3-4.16

##################
#### Outputs ####
##################

***** Boundaries *******************

&BNDF QUANTITY='TOTAL HEAT FLUX', CELL_CENTERED=.TRUE./
&BNDF QUANTITY='RADIATIVE HEAT FLUX', CELL_CENTERED=.TRUE./
&BNDF QUANTITY='CONVECTIVE HEAT FLUX', CELL_CENTERED=.TRUE./
&BNDF QUANTITY='INCIDENT HEAT FLUX', CELL_CENTERED=.TRUE./
&BNDF QUANTITY='GAUGE HEAT FLUX', CELL_CENTERED=.TRUE./
&BNDF QUANTITY='REFERENCE HEAT FLUX', CELL_CENTERED=.TRUE./
&BNDF QUANTITY='WALL TEMPERATURE', CELL_CENTERED=.TRUE./
&BNDF QUANTITY='HEAT TRANSFER COEFFICIENT', CELL_CENTERED=.TRUE./
&BNDF QUANTITY='BURNING RATE', CELL_CENTERED=.TRUE./
&BNDF QUANTITY='HRRPUA', CELL_CENTERED=.TRUE./

***** Slices *******************

&SLCF PBX=0.415, QUANTITY = 'TEMPERATURE', CELL_CENTERED = .TRUE. /
&SLCF PBY=0.415, QUANTITY = 'TEMPERATURE', CELL_CENTERED = .TRUE. /

***** Isosurface *******************

&ISOF QUANTITY='HRRPUV', VALUE=200 /

##################
#### Geometry ####
##################

***** Materials *******************

&MATL ID = 'GRAVEL'
      CONDUCTIVITY = 0.7
      SPECIFIC_HEAT = 1.
      DENSITY = 2000. /

&SURF ID = 'BURNER', HRRPUA = 1000., COLOR = 'RED', MATL_ID = 'GRAVEL', THICKNESS = 0.15, SPEC_ID(1) = 'PROPANE', MASS_FRACTION(1) = 1 /

&MATL ID = 'PMMA_CN_6mm', DENSITY = 1139.2407407407409, CONDUCTIVITY_RAMP = 'k_PMMA',
      SPECIFIC_HEAT_RAMP = 'cp_PMMA', EMISSIVITY = 0.96, ABSORPTION_COEFFICIENT = 2870 /

&RAMP ID='k_PMMA', T= 20., F=0.160 /
&RAMP ID='k_PMMA', T=122., F=0.160 /
&RAMP ID='k_PMMA', T=500., F=0.015 /

&RAMP ID='cp_PMMA', T= 20., F=1.05 /
&RAMP ID='cp_PMMA', T=122., F=1.90 /
&RAMP ID='cp_PMMA', T=500., F=3.22 /

&SURF ID                      = 'SAMPLE FRONT',
      MATL_ID                 = 'PMMA_CN_6mm', 'PROMAT LS',
      THICKNESS               = 0.006, 0.05
      COLOR                   = 'BLACK',
      HRRPUA                  = 1,
      IGNITION_TEMPERATURE    = 340.7745079335275,
      HEAT_OF_VAPORIZATION    = 2029.3588585067885
      RAMP_Q                  = 'CONE_HRRPUA_25','CONE_HRRPUA_50','CONE_HRRPUA_75',
      REFERENCE_HEAT_FLUX     = 25,50,75,
      SPEC_ID(1)              = 'MMA',
      MASS_FRACTION(1)        = 1 /

&SURF ID = 'SAMPLE BACK'
      COLOR  = 'BEIGE'
      MATL_ID  = 'PROMAT LS','PMMA_CN_6mm'
      THICKNESS = 0.05,0.006 /

&SURF ID = 'PROMAT LS'
      COLOR = 'BEIGE'
      MATL_ID = 'PROMAT LS'
      THICKNESS = 0.05 /

&MATL ID            = 'PROMAT LS'
      EMISSIVITY    = 0.9
      DENSITY       = 450.
      SPECIFIC_HEAT = 0.95
      CONDUCTIVITY_RAMP = 'k_PROMAT LS' /

&RAMP ID='k_PROMAT LS', T= 20., F=0.08 /
&RAMP ID='k_PROMAT LS', T=200., F=0.10 /
&RAMP ID='k_PROMAT LS', T=400., F=0.11 /

&MATL ID            = 'STEEL'
      EMISSIVITY    = 0.9
      DENSITY       = 7800.
      SPECIFIC_HEAT = 0.465        
      CONDUCTIVITY  = 43. /

&SURF ID            = 'STEEL'
      MATL_ID       = 'STEEL'
      THICKNESS     = 0.003
      COLOR         = 'STEEL BLUE' /

***** Sample and Frame ***************

OBST XB = 0.000, 0.750, 0.000, 0.750, -0.05, 0.0, SURF_ID='PROMAT LS' /

&OBST XB = 0.600, 0.700, 0.600, 0.700, 0.15, 0.30, SURF_IDS = 'BURNER','STEEL','STEEL' /
&OBST XB = 0.600, 0.625, 0.600, 0.625, 0.00, 0.15, SURF_ID = 'STEEL' /
&OBST XB = 0.600, 0.625, 0.675, 0.700, 0.00, 0.15, SURF_ID = 'STEEL' /
&OBST XB = 0.675, 0.700, 0.600, 0.625, 0.00, 0.15, SURF_ID = 'STEEL' /
&OBST XB = 0.675, 0.700, 0.675, 0.700, 0.00, 0.15, SURF_ID = 'STEEL' /

&OBST XB = 0.00, 0.20, 0.70, 0.75, 0.0, 1.30, SURF_ID='PROMAT LS' /
&OBST XB = 0.20, 0.70, 0.70, 0.75, 0.0, 0.30, SURF_ID='PROMAT LS' /
&OBST XB = 0.20, 0.70, 0.70, 0.75, 0.3, 1.30, SURF_ID6='PROMAT LS','PROMAT LS','SAMPLE FRONT','SAMPLE BACK','PROMAT LS','PROMAT LS' /
OBST XB = 0.00, 0.70, 0.70, 0.75, 1.3, 1.35, SURF_ID='PROMAT LS' /

&OBST XB = 0.70, 0.75, 0.00, 0.20, 0.0, 1.30, SURF_ID='PROMAT LS' /
&OBST XB = 0.70, 0.75, 0.20, 0.70, 0.0, 0.30, SURF_ID='PROMAT LS' /
&OBST XB = 0.70, 0.75, 0.20, 0.70, 0.3, 1.30, SURF_ID6='SAMPLE FRONT','SAMPLE BACK','PROMAT LS','PROMAT LS','PROMAT LS','PROMAT LS' /
OBST XB = 0.70, 0.75, 0.00, 0.70, 1.3, 1.35, SURF_ID='PROMAT LS' /

&OBST XB = 0.70, 0.75, 0.70, 0.75, 0.0, 1.35, SURF_ID='PROMAT LS' /

&OBST XB = 0.00, 0.75, 0.00, 0.75, 1.3, 1.35, SURF_ID='PROMAT LS' /

#Cone Ramps for SPyro
CONE_RAMP for 25 kW/m²
&RAMP ID = 'CONE_HRRPUA_25', T = 0, F = 175.8 /
&RAMP ID = 'CONE_HRRPUA_25', T = 5, F = 252.9 /
&RAMP ID = 'CONE_HRRPUA_25', T = 10, F = 281.9 /
&RAMP ID = 'CONE_HRRPUA_25', T = 15, F = 292.5 /
&RAMP ID = 'CONE_HRRPUA_25', T = 20, F = 305.9 /
&RAMP ID = 'CONE_HRRPUA_25', T = 25, F = 312.6 /
&RAMP ID = 'CONE_HRRPUA_25', T = 30, F = 313.2 /
&RAMP ID = 'CONE_HRRPUA_25', T = 35, F = 307.3 /
&RAMP ID = 'CONE_HRRPUA_25', T = 40, F = 319.3 /
&RAMP ID = 'CONE_HRRPUA_25', T = 45, F = 316.8 /
&RAMP ID = 'CONE_HRRPUA_25', T = 50, F = 315.9 /
&RAMP ID = 'CONE_HRRPUA_25', T = 55, F = 321.7 /
&RAMP ID = 'CONE_HRRPUA_25', T = 60, F = 328.7 /
&RAMP ID = 'CONE_HRRPUA_25', T = 65, F = 324.5 /
&RAMP ID = 'CONE_HRRPUA_25', T = 70, F = 320.9 /
&RAMP ID = 'CONE_HRRPUA_25', T = 75, F = 329.8 /
&RAMP ID = 'CONE_HRRPUA_25', T = 80, F = 329.4 /
&RAMP ID = 'CONE_HRRPUA_25', T = 85, F = 334.5 /
&RAMP ID = 'CONE_HRRPUA_25', T = 90, F = 338.5 /
&RAMP ID = 'CONE_HRRPUA_25', T = 95, F = 331.8 /
! ... 99 like lines cut
CONE_RAMP for 50 kW/m²
&RAMP ID = 'CONE_HRRPUA_50', T = 0, F = 233.8 /
&RAMP ID = 'CONE_HRRPUA_50', T = 5, F = 424.6 /
&RAMP ID = 'CONE_HRRPUA_50', T = 10, F = 477.7 /
&RAMP ID = 'CONE_HRRPUA_50', T = 15, F = 500.3 /
&RAMP ID = 'CONE_HRRPUA_50', T = 20, F = 524.4 /
&RAMP ID = 'CONE_HRRPUA_50', T = 25, F = 520.1 /
&RAMP ID = 'CONE_HRRPUA_50', T = 30, F = 525.9 /
&RAMP ID = 'CONE_HRRPUA_50', T = 35, F = 523.1 /
&RAMP ID = 'CONE_HRRPUA_50', T = 40, F = 536.1 /
&RAMP ID = 'CONE_HRRPUA_50', T = 45, F = 542.9 /
&RAMP ID = 'CONE_HRRPUA_50', T = 50, F = 540.3 /
&RAMP ID = 'CONE_HRRPUA_50', T = 55, F = 538.2 /
&RAMP ID = 'CONE_HRRPUA_50', T = 60, F = 548.4 /
&RAMP ID = 'CONE_HRRPUA_50', T = 65, F = 536.0 /
&RAMP ID = 'CONE_HRRPUA_50', T = 70, F = 552.3 /
&RAMP ID = 'CONE_HRRPUA_50', T = 75, F = 571.0 /
&RAMP ID = 'CONE_HRRPUA_50', T = 80, F = 553.7 /
&RAMP ID = 'CONE_HRRPUA_50', T = 85, F = 566.8 /
&RAMP ID = 'CONE_HRRPUA_50', T = 90, F = 582.4 /
&RAMP ID = 'CONE_HRRPUA_50', T = 95, F = 568.6 /
! ... 113 like lines cut
CONE_RAMP for 75 kW/m²
&RAMP ID = 'CONE_HRRPUA_75', T = 0, F = 170.9 /
&RAMP ID = 'CONE_HRRPUA_75', T = 5, F = 503.1 /
&RAMP ID = 'CONE_HRRPUA_75', T = 10, F = 660.4 /
&RAMP ID = 'CONE_HRRPUA_75', T = 15, F = 716.5 /
&RAMP ID = 'CONE_HRRPUA_75', T = 20, F = 754.0 /
&RAMP ID = 'CONE_HRRPUA_75', T = 25, F = 761.7 /
&RAMP ID = 'CONE_HRRPUA_75', T = 30, F = 803.0 /
&RAMP ID = 'CONE_HRRPUA_75', T = 35, F = 776.8 /
&RAMP ID = 'CONE_HRRPUA_75', T = 40, F = 794.5 /
&RAMP ID = 'CONE_HRRPUA_75', T = 45, F = 762.5 /
&RAMP ID = 'CONE_HRRPUA_75', T = 50, F = 787.4 /
&RAMP ID = 'CONE_HRRPUA_75', T = 55, F = 810.0 /
&RAMP ID = 'CONE_HRRPUA_75', T = 60, F = 783.6 /
&RAMP ID = 'CONE_HRRPUA_75', T = 65, F = 819.0 /
&RAMP ID = 'CONE_HRRPUA_75', T = 70, F = 797.2 /
&RAMP ID = 'CONE_HRRPUA_75', T = 75, F = 835.6 /
&RAMP ID = 'CONE_HRRPUA_75', T = 80, F = 826.7 /
&RAMP ID = 'CONE_HRRPUA_75', T = 85, F = 811.5 /
&RAMP ID = 'CONE_HRRPUA_75', T = 90, F = 837.6 /
&RAMP ID = 'CONE_HRRPUA_75', T = 95, F = 866.0 /
! ... 116 like lines cut
 
&TAIL /